/*--------------------------------*- C++ -*----------------------------------*\
| =========                 |                                                 |
| \\      /  F ield         | OpenFOAM: The Open Source CFD Toolbox           |
|  \\    /   O peration     | Version:  v1806                                 |
|   \\  /    A nd           | Web:      www.OpenFOAM.com                      |
|    \\/     M anipulation  |                                                 |
\*---------------------------------------------------------------------------*/
FoamFile
{
    version     2.0;
    format      ascii;
    class       dictionary;
    object      phaseProperties;
}
// * * * * * * * * * * * * * * * * * * * * * * * * * * * * * * * * * * * * * //
type    massTransferMultiphaseSystem;

phases  (liquid gas);

liquid
{
    type            pureMovingPhaseModel;
}

gas
{
    type            multiComponentMovingPhaseModel;
}

surfaceTension
(
    (gas and liquid)
    {
        type            constant;
        sigma           0.07;
    }
);

massTransferModel
(
    (liquid to gas)
    {
        type            kineticGasEvaporation;
        species         vapour.gas;
        C               3.01e-05;
        alphaMin        0.0;
        alphaMax        1.0;
        Tactivate       300.02;
    }
);
// ************************************************************************* //
